<?xml version="1.0" encoding="UTF-8"?>

<!-- generated on 2025-11-02 01:40:00 by Eclipse SUMO netconvert Version 1.24.0
<netconvertConfiguration xmlns:xsi="http://www.w3.org/2001/XMLSchema-instance" xsi:noNamespaceSchemaLocation="http://sumo.dlr.de/xsd/netconvertConfiguration.xsd">

    <input>
        <osm-files value="map.osm"/>
    </input>

    <output>
        <output-file value="frankfurt.net.xml"/>
    </output>

    <projection>
        <proj.utm value="true"/>
    </projection>

    <processing>
        <geometry.remove value="true"/>
        <roundabouts.guess value="true"/>
    </processing>

    <tls_building>
        <tls.discard-simple value="true"/>
        <tls.join value="true"/>
        <tls.guess-signals value="true"/>
    </tls_building>

    <ramp_guessing>
        <ramps.guess value="true"/>
    </ramp_guessing>

    <junctions>
        <junctions.join value="true"/>
    </junctions>

</netconvertConfiguration>
-->

<net version="1.20" junctionCornerDetail="5" limitTurnSpeed="5.50" xmlns:xsi="http://www.w3.org/2001/XMLSchema-instance" xsi:noNamespaceSchemaLocation="http://sumo.dlr.de/xsd/net_file.xsd">

    <location netOffset="-476860.60,-5551701.19" convBoundary="0.00,0.00,2181.30,2857.74" origBoundary="8.676238,50.117135,8.706789,50.142877" projParameter="+proj=utm +zone=32 +ellps=WGS84 +datum=WGS84 +units=m +no_defs"/>

    <type id="highway.busway" priority="1" numLanes="1" speed="27.78" allow="bus" oneway="1"/>
    <type id="highway.cycleway" priority="1" numLanes="1" speed="5.56" allow="bicycle" oneway="0" width="2.00"/>
    <type id="highway.footway" priority="1" numLanes="1" speed="2.78" allow="pedestrian" oneway="1" width="2.00"/>
    <type id="highway.living_street" priority="2" numLanes="1" speed="2.78" disallow="tram rail_urban rail rail_electric rail_fast ship container cable_car subway aircraft wheelchair scooter drone" oneway="0"/>
    <type id="highway.path" priority="1" numLanes="1" speed="5.56" allow="pedestrian bicycle" oneway="0" width="2.00"/>
    <type id="highway.pedestrian" priority="1" numLanes="1" speed="2.78" allow="pedestrian" oneway="1" width="2.00"/>
    <type id="highway.primary" priority="12" numLanes="2" speed="27.78" disallow="tram rail_urban rail rail_electric rail_fast ship container cable_car subway aircraft wheelchair scooter drone" oneway="0"/>
    <type id="highway.primary_link" priority="7" numLanes="1" speed="22.22" disallow="tram rail_urban rail rail_electric rail_fast ship container cable_car subway aircraft wheelchair scooter drone" oneway="0"/>
    <type id="highway.residential" priority="3" numLanes="1" speed="13.89" disallow="tram rail_urban rail rail_electric rail_fast ship container cable_car subway aircraft wheelchair scooter drone" oneway="0"/>
    <type id="highway.secondary" priority="11" numLanes="1" speed="27.78" disallow="tram rail_urban rail rail_electric rail_fast ship container cable_car subway aircraft wheelchair scooter drone" oneway="0"/>
    <type id="highway.service" priority="1" numLanes="1" speed="5.56" allow="pedestrian delivery bicycle" oneway="0"/>
    <type id="highway.steps" priority="1" numLanes="1" speed="1.39" allow="pedestrian" oneway="1" width="2.00"/>
    <type id="highway.tertiary" priority="10" numLanes="1" speed="22.22" disallow="tram rail_urban rail rail_electric rail_fast ship container cable_car subway aircraft wheelchair scooter drone" oneway="0"/>
    <type id="highway.unclassified" priority="4" numLanes="1" speed="13.89" disallow="tram rail_urban rail rail_electric rail_fast ship container cable_car subway aircraft wheelchair scooter drone" oneway="0"/>
    <type id="railway.light_rail" priority="19" numLanes="1" speed="27.78" allow="rail_urban" oneway="1"/>
    <type id="railway.tram" priority="17" numLanes="1" speed="13.89" allow="tram" oneway="1"/>

    <edge id=":10132117748_0" function="internal">
        <lane id=":10132117748_0_0" index="0" allow="pedestrian delivery bicycle" speed="3.65" length="4.67" shape="469.99,1356.03 468.60,1355.64 467.97,1355.00 468.11,1354.12 469.00,1352.99"/>
    </edge>
    <edge id=":10310773535_0" function="internal">
        <lane id=":10310773535_0_0" index="0" allow="pedestrian bicycle" speed="5.56" length="8.34" width="2.00" shape="1296.34,1220.93 1294.74,1222.83 1293.67,1224.15 1292.49,1225.36 1290.58,1226.93"/>
    </edge>
    <edge id=":10310773535_1" function="internal">
        <lane id=":10310773535_1_0" index="0" allow="pedestrian bicycle" speed="2.89" length="0.48" width="2.00" shape="1296.34,1220.93 1295.87,1221.01"/>
    </edge>
    <edge id=":10310773535_4" function="internal">
        <lane id=":10310773535_4_0" index="0" allow="pedestrian bicycle" speed="2.89" length="2.46" width="2.00" shape="1295.87,1221.01 1295.45,1221.08 1294.92,1220.88 1294.76,1220.34 1294.97,1219.46"/>
    </edge>
    <edge id=":10310773535_2" function="internal">
        <lane id=":10310773535_2_0" index="0" allow="pedestrian bicycle" speed="5.56" length="8.15" width="2.00" shape="1289.37,1225.34 1291.22,1223.81 1292.37,1222.62 1293.41,1221.32 1294.97,1219.46"/>
    </edge>
    <edge id=":10310773535_3" function="internal">
        <lane id=":10310773535_3_0" index="0" allow="pedestrian bicycle" speed="2.89" length="0.79" width="2.00" shape="1289.37,1225.34 1290.16,1225.29"/>
    </edge>
    <edge id=":10310773535_5" function="internal">
        <lane id=":10310773535_5_0" index="0" allow="pedestrian bicycle" speed="2.89" length="2.13" width="2.00" shape="1290.16,1225.29 1290.27,1225.28 1290.77,1225.52 1290.87,1226.07 1290.58,1226.93"/>
    </edge>
    <edge id=":10310802909_0" function="internal">
        <lane id=":10310802909_0_0" index="0" disallow="tram rail_urban rail rail_electric rail_fast ship container cable_car subway aircraft wheelchair scooter drone" speed="13.89" length="8.46" shape="1282.96,1190.75 1280.60,1189.90 1278.93,1189.37 1277.37,1188.65 1275.36,1187.19"/>
    </edge>
    <edge id=":10310802909_1" function="internal">
        <lane id=":10310802909_1_0" index="0" allow="tram" speed="13.89" length="14.41" shape="1284.48,1187.72 1270.54,1184.07"/>
    </edge>
    <edge id=":10310802911_0" function="internal">
        <lane id=":10310802911_0_0" index="0" allow="tram" speed="13.89" length="3.01" shape="1277.24,1182.14 1280.14,1182.92"/>
    </edge>
    <edge id=":10310802911_1" function="internal">
        <lane id=":10310802911_1_0" index="0" disallow="tram rail_urban rail rail_electric rail_fast ship container cable_car subway aircraft wheelchair scooter drone" speed="13.89" length="1.47" shape="1278.92,1180.94 1280.38,1181.14"/>
        <lane id=":10310802911_1_1" index="1" disallow="tram rail_urban rail rail_electric rail_fast ship container cable_car subway aircraft wheelchair scooter drone" speed="13.89" length="1.47" shape="1278.50,1184.12 1279.95,1184.31"/>
    </edge>
    <edge id=":10310802913_0" function="internal">
        <lane id=":10310802913_0_0" index="0" disallow="tram rail_urban rail rail_electric rail_fast ship container cable_car subway aircraft wheelchair scooter drone" speed="8.33" length="3.02" shape="1464.80,1232.67 1467.57,1233.88"/>
    </edge>
    <edge id=":10310802913_1" function="internal">
        <lane id=":10310802913_1_0" index="0" allow="tram" speed="13.89" length="2.99" shape="1464.75,1232.88 1467.63,1233.67"/>
    </edge>
    <edge id=":10751453120_0" function="internal">
        <lane id=":10751453120_0_0" index="0" allow="pedestrian delivery bicycle" speed="5.30" length="4.77" shape="1074.84,1444.79 1074.59,1443.54 1074.01,1442.59 1073.11,1441.94 1071.88,1441.60"/>
    </edge>
    <edge id=":10751453120_1" function="internal">
        <lane id=":10751453120_1_0" index="0" allow="pedestrian delivery bicycle" speed="5.56" length="8.44" shape="1074.84,1444.79 1074.71,1442.30 1074.87,1440.55 1075.53,1438.95 1076.91,1436.91"/>
    </edge>
    <edge id=":10751453120_2" function="internal">
        <lane id=":10751453120_2_0" index="0" allow="pedestrian delivery bicycle" speed="3.65" length="4.67" shape="1074.84,1444.79 1075.56,1443.54 1076.33,1443.09 1077.16,1443.44 1078.03,1444.59"/>
    </edge>
    <edge id=":10751453120_3" function="internal">
        <lane id=":10751453120_3_0" index="0" allow="pedestrian delivery bicycle" speed="5.56" length="6.18" shape="1079.49,1438.80 1078.48,1440.30 1078.02,1441.48 1077.93,1442.77 1078.03,1444.59"/>
    </edge>
    <edge id=":10751453120_4" function="internal">
        <lane id=":10751453120_4_0" index="0" allow="pedestrian delivery bicycle" speed="5.56" length="8.52" shape="1079.49,1438.80 1078.04,1440.29 1076.29,1441.25 1074.24,1441.69 1071.88,1441.60"/>
    </edge>
    <edge id=":10751453120_5" function="internal">
        <lane id=":10751453120_5_0" index="0" allow="pedestrian delivery bicycle" speed="3.65" length="4.67" shape="1079.49,1438.80 1078.13,1439.30 1077.25,1439.15 1076.84,1438.35 1076.91,1436.91"/>
    </edge>
    <edge id=":10751453120_6" function="internal">
        <lane id=":10751453120_6_0" index="0" allow="pedestrian delivery bicycle" speed="5.56" length="5.07" shape="1072.33,1438.43 1073.79,1438.50 1075.04,1438.27 1076.08,1437.74 1076.91,1436.91"/>
    </edge>
    <edge id=":10751453120_7" function="internal">
        <lane id=":10751453120_7_0" index="0" allow="pedestrian delivery bicycle" speed="5.56" length="9.20" shape="1072.33,1438.43 1074.70,1439.10 1076.44,1440.34 1077.55,1442.18 1078.03,1444.59"/>
    </edge>
    <edge id=":10751453120_8" function="internal">
        <lane id=":10751453120_8_0" index="0" allow="pedestrian delivery bicycle" speed="3.65" length="4.67" shape="1072.33,1438.43 1073.41,1439.39 1073.69,1440.24 1073.18,1440.97 1071.88,1441.60"/>
    </edge>
    <edge id=":10751453121_0" function="internal">
        <lane id=":10751453121_0_0" index="0" allow="pedestrian delivery bicycle" speed="3.65" length="4.67" shape="1078.13,1446.24 1077.41,1447.49 1076.64,1447.94 1075.81,1447.59 1074.94,1446.44"/>
    </edge>
    <edge id=":10762053020_0" function="internal">
        <lane id=":10762053020_0_0" index="0" allow="rail_urban subway" speed="27.78" length="7.34" shape="674.16,1056.83 671.89,1063.81"/>
    </edge>
    <edge id=":10762053020_1" function="internal">
        <lane id=":10762053020_1_0" index="0" allow="tram" speed="13.89" length="6.82" shape="674.13,1057.19 675.53,1055.73 676.57,1054.81 677.70,1054.00 679.39,1052.89"/>
    </edge>
    <edge id=":1111667440_0" function="internal">
        <lane id=":1111667440_0_0" index="0" disallow="tram rail_urban rail rail_electric rail_fast ship container cable_car subway aircraft wheelchair scooter drone" speed="8.33" length="5.00" shape="1351.91,1260.99 1353.40,1265.76"/>
    </edge>
    <edge id=":1111667444_0" function="internal">
        <lane id=":1111667444_0_0" index="0" disallow="tram rail_urban rail rail_electric rail_fast ship container cable_car subway aircraft wheelchair scooter drone" speed="8.33" length="5.08" shape="1331.24,1272.83 1329.44,1268.08"/>
    </edge>
    <edge id=":11188399934_0" function="internal">
        <lane id=":11188399934_0_0" index="0" allow="rail_urban subway" speed="27.78" length="5.75" shape="570.79,1335.83 569.48,1341.42"/>
    </edge>
    <edge id=":11188399934_1" function="internal">
        <lane id=":11188399934_1_0" index="0" disallow="tram rail_urban rail rail_electric rail_fast ship container cable_car subway aircraft wheelchair scooter drone" speed="13.89" length="5.73" shape="570.66,1335.80 570.30,1337.46 570.05,1338.60 569.87,1339.75 569.70,1341.44"/>
    </edge>
    <edge id=":11267223270_0" function="internal">
        <lane id=":11267223270_0_0" index="0" allow="bus bicycle" speed="27.78" length="3.01" shape="1324.04,1611.79 1323.19,1608.90"/>
    </edge>
    <edge id=":11267223270_1" function="internal">
        <lane id=":11267223270_1_0" index="0" allow="tram" speed="13.89" length="2.99" shape="1324.24,1611.70 1323.00,1608.98"/>
    </edge>
    <edge id=":11966302097_0" function="internal">
        <lane id=":11966302097_0_0" index="0" allow="tram" speed="13.89" length="1.28" shape="693.12,1048.92 693.50,1048.90 693.76,1048.91 694.02,1048.93 694.40,1048.94"/>
    </edge>
    <edge id=":119763939_0" function="internal">
        <lane id=":119763939_0_0" index="0" allow="tram" speed="13.89" length="2.50" shape="1131.17,1131.58 1131.33,1134.08"/>
    </edge>
    <edge id=":12216655098_0" function="internal">
        <lane id=":12216655098_0_0" index="0" allow="tram" speed="13.89" length="5.11" shape="1302.82,1543.82 1301.43,1538.90"/>
    </edge>
    <edge id=":12216655099_0" function="internal">
        <lane id=":12216655099_0_0" index="0" allow="bus bicycle" speed="27.78" length="5.11" shape="1304.25,1543.35 1302.90,1538.42"/>
    </edge>
    <edge id=":12216655100_0" function="internal">
        <lane id=":12216655100_0_0" index="0" allow="tram" speed="13.89" length="5.16" shape="1304.38,1537.93 1305.72,1542.91"/>
    </edge>
    <edge id=":12301436064_0" function="internal">
        <lane id=":12301436064_0_0" index="0" allow="tram" speed="13.89" length="8.41" shape="1128.65,1136.45 1128.01,1128.07"/>
    </edge>
    <edge id=":12301436064_1" function="internal">
        <lane id=":12301436064_1_0" index="0" allow="tram" speed="13.89" length="7.12" shape="1129.14,1129.37 1128.30,1131.31 1127.64,1132.60 1126.89,1133.84 1125.80,1135.65"/>
    </edge>
    <edge id=":12301436071_0" function="internal">
        <lane id=":12301436071_0_0" index="0" allow="tram" speed="13.89" length="2.94" shape="1134.77,1168.05 1134.76,1168.93 1134.77,1169.52 1134.81,1170.12 1134.90,1170.99"/>
    </edge>
    <edge id=":12301436071_1" function="internal">
        <lane id=":12301436071_1_0" index="0" allow="tram" speed="13.89" length="2.93" shape="1134.61,1168.07 1134.90,1170.99"/>
    </edge>
    <edge id=":12301436072_0" function="internal">
        <lane id=":12301436072_0_0" index="0" allow="tram" speed="13.89" length="5.84" shape="1135.74,1160.51 1135.24,1162.16 1134.96,1163.32 1134.83,1164.50 1134.79,1166.23"/>
    </edge>
    <edge id=":12301436075_0" function="internal">
        <lane id=":12301436075_0_0" index="0" allow="tram" speed="13.89" length="0.58" shape="1142.82,1149.68 1142.67,1150.24"/>
    </edge>
    <edge id=":12301436075_1" function="internal">
        <lane id=":12301436075_1_0" index="0" allow="tram" speed="13.89" length="5.07" shape="1138.25,1152.01 1139.45,1151.08 1140.23,1150.31 1141.08,1149.75 1142.49,1149.49"/>
    </edge>
    <edge id=":12301436078_0" function="internal">
        <lane id=":12301436078_0_0" index="0" allow="tram" speed="13.89" length="4.86" shape="1131.56,1131.35 1131.86,1132.76 1132.05,1133.74 1132.35,1134.68 1132.97,1135.97"/>
    </edge>
    <edge id=":12516227364_0" function="internal">
        <lane id=":12516227364_0_0" index="0" allow="rail_urban subway" speed="27.78" length="0.30" shape="556.10,2007.54 556.15,2007.84"/>
    </edge>
    <edge id=":12516227365_0" function="internal">
        <lane id=":12516227365_0_0" index="0" allow="rail_urban subway" speed="27.78" length="0.15" shape="558.67,1638.37 558.68,1638.52"/>
    </edge>
    <edge id=":12516227366_0" function="internal">
        <lane id=":12516227366_0_0" index="0" allow="rail_urban subway" speed="27.78" length="0.10" shape="558.19,1596.08 558.19,1596.14"/>
    </edge>
    <edge id=":12516227367_0" function="internal">
        <lane id=":12516227367_0_0" index="0" allow="rail_urban subway" speed="27.78" length="0.35" shape="553.94,1467.03 553.94,1467.37"/>
    </edge>
    <edge id=":12516227368_0" function="internal">
        <lane id=":12516227368_0_0" index="0" allow="rail_urban subway" speed="27.78" length="0.30" shape="556.97,1461.87 556.96,1462.16"/>
    </edge>
    <edge id=":12516227370_0" function="internal">
        <lane id=":12516227370_0_0" index="0" allow="rail_urban subway" speed="27.78" length="0.10" shape="555.94,1401.86 555.94,1401.86"/>
    </edge>
    <edge id=":12516227371_0" function="internal">
        <lane id=":12516227371_0_0" index="0" allow="rail_urban subway" speed="27.78" length="0.10" shape="587.73,1246.87 587.73,1246.87"/>
    </edge>
    <edge id=":12516227372_0" function="internal">
        <lane id=":12516227372_0_0" index="0" allow="rail_urban subway" speed="27.78" length="0.30" shape="605.00,1218.35 604.87,1218.62"/>
    </edge>
    <edge id=":12516227376_0" function="internal">
        <lane id=":12516227376_0_0" index="0" allow="rail_urban subway" speed="27.78" length="0.27" shape="644.29,1140.15 644.19,1140.40"/>
    </edge>
    <edge id=":12516227377_0" function="internal">
        <lane id=":12516227377_0_0" index="0" allow="rail_urban subway" speed="27.78" length="0.14" shape="632.51,1155.75 632.58,1155.63"/>
    </edge>
    <edge id=":12516227378_0" function="internal">
        <lane id=":12516227378_0_0" index="0" allow="rail_urban subway" speed="27.78" length="0.10" shape="681.96,1023.47 681.96,1023.47"/>
    </edge>
    <edge id=":12516227379_0" function="internal">
        <lane id=":12516227379_0_0" index="0" allow="rail_urban subway" speed="27.78" length="0.14" shape="668.03,1065.76 667.99,1065.88"/>
    </edge>
    <edge id=":12516227387_0" function="internal">
        <lane id=":12516227387_0_0" index="0" allow="rail_urban subway" speed="27.78" length="0.10" shape="716.31,664.08 716.31,664.08"/>
    </edge>
    <edge id=":12516227390_0" function="internal">
        <lane id=":12516227390_0_0" index="0" allow="rail_urban subway" speed="27.78" length="0.10" shape="708.25,537.17 708.25,537.17"/>
    </edge>
    <edge id=":12516227391_0" function="internal">
        <lane id=":12516227391_0_0" index="0" allow="rail_urban subway" speed="27.78" length="0.10" shape="707.36,548.54 707.36,548.54"/>
    </edge>
    <edge id=":12516227394_0" function="internal">
        <lane id=":12516227394_0_0" index="0" allow="rail_urban subway" speed="27.78" length="0.10" shape="719.27,634.87 719.27,634.87"/>
    </edge>
    <edge id=":12516227395_0" function="internal">
        <lane id=":12516227395_0_0" index="0" allow="rail_urban subway" speed="27.78" length="0.30" shape="706.40,423.40 706.39,423.70"/>
    </edge>
    <edge id=":12516227396_0" function="internal">
        <lane id=":12516227396_0_0" index="0" allow="rail_urban subway" speed="27.78" length="0.30" shape="715.82,338.11 715.98,337.86"/>
    </edge>
    <edge id=":13266652915_0" function="internal">
        <lane id=":13266652915_0_0" index="0" allow="pedestrian bicycle" speed="5.56" length="52.21" width="2.00" shape="470.47,1627.64 479.68,1625.08 495.72,1621.00 511.76,1616.92 520.96,1614.36"/>
    </edge>
    <edge id=":1345894342_0" function="internal">
        <lane id=":1345894342_0_0" index="0" allow="pedestrian delivery bicycle" speed="3.65" length="4.67" shape="540.08,1464.48 539.29,1465.69 538.49,1466.09 537.69,1465.70 536.88,1464.50"/>
    </edge>
    <edge id=":1437387998_0" function="internal">
        <lane id=":1437387998_0_0" index="0" disallow="tram rail_urban rail rail_electric rail_fast ship container cable_car subway aircraft wheelchair scooter drone" speed="8.33" length="5.30" shape="1323.67,1175.87 1324.22,1177.35 1324.61,1178.35 1325.07,1179.33 1325.82,1180.71"/>
    </edge>
    <edge id=":1437485369_0" function="internal">
        <lane id=":1437485369_0_0" index="0" disallow="tram rail_urban rail rail_electric rail_fast ship container cable_car subway aircraft wheelchair scooter drone" speed="8.33" length="0.10" shape="825.69,1467.08 825.66,1466.99"/>
    </edge>
    <edge id=":1437485369_1" function="internal">
        <lane id=":1437485369_1_0" index="0" disallow="tram rail_urban rail rail_electric rail_fast ship container cable_car subway aircraft wheelchair scooter drone" speed="8.33" length="0.18" shape="822.50,1466.77 822.52,1466.72 822.52,1466.69 822.52,1466.65 822.52,1466.60"/>
    </edge>
    <edge id=":1437485399_0" function="internal">
        <lane id=":1437485399_0_0" index="0" disallow="tram rail_urban rail rail_electric rail_fast ship container cable_car subway aircraft wheelchair scooter drone" speed="13.89" length="8.20" shape="750.25,1530.09 752.37,1529.01 753.65,1527.92 754.92,1526.83 757.02,1525.70"/>
        <lane id=":1437485399_0_1" index="1" disallow="tram rail_urban rail rail_electric rail_fast ship container cable_car subway aircraft wheelchair scooter drone" speed="13.89" length="8.20" shape="751.40,1533.08 753.53,1531.99 754.82,1530.90 756.10,1529.80 758.22,1528.67"/>
        <lane id=":1437485399_0_2" index="2" disallow="tram rail_urban rail rail_electric rail_fast ship container cable_car subway aircraft wheelchair scooter drone" speed="13.89" length="8.20" shape="752.54,1536.07 754.69,1534.97 755.99,1533.88 757.29,1532.77 759.42,1531.64"/>
        <lane id=":1437485399_0_3" index="3" disallow="tram rail_urban rail rail_electric rail_fast ship container cable_car subway aircraft wheelchair scooter drone" speed="13.89" length="8.20" shape="752.54,1536.07 754.89,1535.43 756.59,1535.36 758.29,1535.27 760.62,1534.60"/>
    </edge>
    <edge id=":1439089663_0" function="internal">
        <lane id=":1439089663_0_0" index="0" allow="bicycle" speed="5.56" length="5.46" width="2.00" shape="1001.29,1409.68 1002.35,1409.30 1003.35,1408.57 1004.28,1407.49 1005.13,1406.06"/>
    </edge>
    <edge id=":1439089663_1" function="internal">
        <lane id=":1439089663_1_0" index="0" allow="pedestrian bicycle" speed="5.56" length="5.74" width="2.00" shape="1001.29,1409.68 1006.94,1408.68"/>
    </edge>
    <edge id=":1439089664_0" function="internal">
        <lane id=":1439089664_0_0" index="0" allow="pedestrian bicycle" speed="5.56" length="6.77" width="2.00" shape="991.26,1412.04 993.06,1411.20 994.38,1410.83 995.77,1410.64 997.76,1410.33"/>
    </edge>
    <edge id=":1439361029_0" function="internal">
        <lane id=":1439361029_0_0" index="0" disallow="tram rail_urban rail rail_electric rail_fast ship container cable_car subway aircraft wheelchair scooter drone" speed="8.33" length="5.64" shape="1063.84,1333.13 1058.28,1332.22"/>
    </edge>
    <edge id=":1439361029_1" function="internal">
        <lane id=":1439361029_1_0" index="0" disallow="tram rail_urban rail rail_electric rail_fast ship container cable_car subway aircraft wheelchair scooter drone" speed="6.95" length="4.43" width="2.45" shape="1060.66,1328.51 1061.26,1329.26 1062.08,1329.88 1063.11,1330.37 1064.36,1330.73"/>
    </edge>
    <edge id=":1445646724_0" function="internal">
        <lane id=":1445646724_0_0" index="0" allow="pedestrian bicycle" speed="5.56" length="4.83" width="2.00" shape="840.94,1485.57 842.33,1485.21 843.26,1484.92 844.17,1484.55 845.48,1483.97"/>
    </edge>
    <edge id=":1445646731_0" function="internal">
        <lane id=":1445646731_0_0" index="0" allow="pedestrian bicycle" speed="5.56" length="4.66" width="2.00" shape="879.26,1528.81 878.01,1529.40 877.18,1529.86 876.43,1530.45 875.44,1531.41"/>
    </edge>
    <edge id=":1449036484_0" function="internal">
        <lane id=":1449036484_0_0" index="0" disallow="tram rail_urban rail rail_electric rail_fast ship container cable_car subway aircraft wheelchair scooter drone" speed="8.33" length="5.75" shape="552.23,1357.20 553.67,1356.29 554.61,1355.60 555.49,1354.82 556.71,1353.63"/>
    </edge>
    <edge id=":1449036489_0" function="internal">
        <lane id=":1449036489_0_0" index="0" disallow="tram rail_urban rail rail_electric rail_fast ship container cable_car subway aircraft wheelchair scooter drone" speed="13.89" length="5.23" shape="568.41,1358.42 567.93,1363.63"/>
    </edge>
    <edge id=":148070878_0" function="internal">
        <lane id=":148070878_0_0" index="0" disallow="tram rail_urban rail rail_electric rail_fast ship container cable_car subway aircraft wheelchair scooter drone" speed="13.89" length="5.28" shape="906.73,1636.18 905.20,1636.37 904.20,1636.87 903.19,1637.35 901.67,1637.48"/>
        <lane id=":148070878_0_1" index="1" disallow="tram rail_urban rail rail_electric rail_fast ship container cable_car subway aircraft wheelchair scooter drone" speed="13.89" length="5.28" shape="906.73,1636.18 905.25,1635.87 904.32,1635.27 903.40,1634.65 901.92,1634.29"/>
    </edge>
    <edge id=":1502803182_0" function="internal">
        <lane id=":1502803182_0_0" index="0" allow="tram" speed="13.89" length="6.49" shape="1127.99,1127.87 1127.48,1121.40"/>
    </edge>
    <edge id=":1502803182_1" function="internal">
        <lane id=":1502803182_1_0" index="0" allow="tram" speed="13.89" length="11.73" shape="1124.12,1132.23 1126.02,1129.60 1127.12,1127.23 1127.55,1124.65 1127.48,1121.40"/>
    </edge>
    <edge id=":1502803185_0" function="internal">
        <lane id=":1502803185_0_0" index="0" allow="tram" speed="13.89" length="2.97" shape="1130.49,1121.83 1130.70,1124.79"/>
    </edge>
    <edge id=":1502803185_1" function="internal">
        <lane id=":1502803185_1_0" index="0" allow="tram" speed="13.89" length="2.99" shape="1130.49,1121.83 1130.54,1122.71 1130.52,1123.32 1130.46,1123.93 1130.35,1124.81"/>
    </edge>
    <edge id=":1502849350_0" function="internal">
        <lane id=":1502849350_0_0" index="0" allow="bicycle" speed="9.71" length="9.84" width="2.20" shape="1241.84,1374.57 1240.89,1373.73 1239.04,1372.92 1236.30,1372.15 1232.67,1371.41"/>
    </edge>
    <edge id=":1502849350_1" function="internal">
        <lane id=":1502849350_1_0" index="0" disallow="tram rail_urban rail rail_electric rail_fast ship container cable_car subway aircraft wheelchair scooter drone" speed="13.89" length="13.88" shape="1242.27,1374.32 1239.94,1372.19 1236.93,1371.31 1233.54,1370.25 1230.04,1367.59"/>
        <lane id=":1502849350_1_1" index="1" disallow="tram rail_urban rail rail_electric rail_fast ship container cable_car subway aircraft wheelchair scooter drone" speed="13.89" length="13.88" shape="1242.27,1374.32 1240.27,1371.81 1238.02,1370.12 1235.42,1368.30 1232.38,1365.40"/>
        <lane id=":1502849350_1_2" index="2" disallow="tram rail_urban rail rail_electric rail_fast ship container cable_car subway aircraft wheelchair scooter drone" speed="13.89" length="13.88" shape="1242.27,1374.32 1240.65,1371.48 1239.21,1369.05 1237.41,1366.48 1234.72,1363.22"/>
        <lane id=":1502849350_1_3" index="3" disallow="tram rail_urban rail rail_electric rail_fast ship container cable_car subway aircraft wheelchair scooter drone" speed="13.89" length="13.88" shape="1242.27,1374.32 1241.05,1371.18 1240.48,1368.07 1239.51,1364.77 1237.07,1361.04"/>
    </edge>
    <edge id=":1502849352_0" function="internal">
        <lane id=":1502849352_0_0" index="0" allow="tram" speed="13.89" length="4.16" shape="1259.35,1384.68 1260.67,1388.63"/>
    </edge>
    <edge id=":1502849353_0" function="internal">
        <lane id=":1502849353_0_0" index="0" allow="tram" speed="13.89" length="4.27" shape="1257.46,1388.51 1257.11,1387.29 1256.81,1386.48 1256.46,1385.68 1255.95,1384.53"/>
    </edge>
    <edge id=":1502849355_0" function="internal">
        <lane id=":1502849355_0_0" index="0" disallow="tram rail_urban rail rail_electric rail_fast ship container cable_car subway aircraft wheelchair scooter drone" speed="13.89" length="5.24" shape="1250.95,1391.53 1250.48,1390.05 1250.12,1389.05 1249.70,1388.07 1249.03,1386.67"/>
    </edge>
    <edge id=":1505226351_0" function="internal">
        <lane id=":1505226351_0_0" index="0" allow="tram" speed="13.89" length="2.78" shape="1319.90,1602.73 1319.12,1600.07"/>
    </edge>
    <edge id=":1505226351_1" function="internal">
        <lane id=":1505226351_1_0" index="0" allow="tram" speed="13.89" length="2.76" shape="1320.10,1602.64 1319.76,1601.90 1319.54,1601.38 1319.35,1600.85 1319.12,1600.07"/>
    </edge>
    <edge id=":1505226353_0" function="internal">
        <lane id=":1505226353_0_0" index="0" allow="tram" speed="13.89" length="2.80" shape="1327.16,1617.57 1327.95,1620.26"/>
    </edge>
    <edge id=":1516671742_0" function="internal">
        <lane id=":1516671742_0_0" index="0" allow="pedestrian bicycle" speed="2.89" length="2.92" width="2.00" shape="1509.77,1088.73 1510.66,1088.59 1511.18,1088.78 1511.34,1089.32 1511.13,1090.20"/>
    </edge>
    <edge id=":1516827444_0" function="internal">
        <lane id=":1516827444_0_0" index="0" disallow="tram rail_urban rail rail_electric rail_fast ship container cable_car subway aircraft wheelchair scooter drone" speed="8.33" length="3.38" shape="1294.66,1179.00 1294.60,1178.00 1294.47,1177.33 1294.29,1176.66 1294.05,1175.68"/>
    </edge>
    <edge id=":1516827546_0" function="internal">
        <lane id=":1516827546_0_0" index="0" disallow="tram rail_urban rail rail_electric rail_fast ship container cable_car subway aircraft wheelchair scooter drone" speed="8.33" length="5.91" shape="1391.11,1209.91 1392.75,1210.55 1393.87,1210.98 1395.01,1211.37 1396.69,1211.86"/>
    </edge>
    <edge id=":1516827634_0" function="internal">
        <lane id=":1516827634_0_0" index="0" allow="pedestrian bicycle" speed="5.56" length="5.56" width="2.00" shape="1131.09,1249.20 1130.53,1243.67"/>
    </edge>
    <edge id=":1516827634_1" function="internal">
        <lane id=":1516827634_1_0" index="0" allow="pedestrian bicycle" speed="4.87" length="3.44" width="2.00" shape="1131.09,1249.20 1131.12,1248.30 1131.39,1247.53 1131.90,1246.88 1132.64,1246.36"/>
    </edge>
    <edge id=":1516827634_2" function="internal">
        <lane id=":1516827634_2_0" index="0" allow="pedestrian bicycle" speed="5.36" length="5.29" width="2.00" shape="1128.26,1247.87 1129.40,1247.39 1130.16,1246.53 1130.54,1245.29 1130.53,1243.67"/>
    </edge>
    <edge id=":1516827634_3" function="internal">
        <lane id=":1516827634_3_0" index="0" disallow="tram rail_urban rail rail_electric rail_fast ship container cable_car subway aircraft wheelchair scooter drone" speed="8.33" length="4.65" shape="1128.26,1247.87 1129.61,1247.58 1130.53,1247.34 1131.41,1246.99 1132.64,1246.36"/>
    </edge>